/*--------------------------------*- C++ -*----------------------------------*\
  =========                 |
  \\      /  F ield         | OpenFOAM: The Open Source CFD Toolbox
   \\    /   O peration     | Website:  https://openfoam.org
    \\  /    A nd           | Version:  12
     \\/     M anipulation  |
\*---------------------------------------------------------------------------*/
FoamFile
{
    format      ascii;
    class       polyBoundaryMesh;
    location    "constant/polyMesh";
    object      boundary;
}
// * * * * * * * * * * * * * * * * * * * * * * * * * * * * * * * * * * * * * //

3
(
    inlet
    {
        type            patch;
        nFaces          3600;
        startFace       642000;
    }
    outlet
    {
        type            patch;
        nFaces          3600;
        startFace       645600;
    }
    pipe
    {
        type            wall;
        inGroups        List<word> 1(wall);
        nFaces          4800;
        startFace       649200;
    }
)

// ************************************************************************* //
