/*--------------------------------*- C++ -*----------------------------------*\
  =========                 |
  \\      /  F ield         | OpenFOAM: The Open Source CFD Toolbox
   \\    /   O peration     | Website:  https://openfoam.org
    \\  /    A nd           | Version:  12
     \\/     M anipulation  |
\*---------------------------------------------------------------------------*/
FoamFile
{
    format      ascii;
    class       polyBoundaryMesh;
    location    "constant/polyMesh";
    object      boundary;
}
// * * * * * * * * * * * * * * * * * * * * * * * * * * * * * * * * * * * * * //

6
(
    minX
    {
        type            wall;
        inGroups        List<word> 1(wall);
        nFaces          400;
        startFace       22800;
    }
    maxX
    {
        type            wall;
        inGroups        List<word> 1(wall);
        nFaces          400;
        startFace       23200;
    }
    minY
    {
        type            wall;
        inGroups        List<word> 1(wall);
        nFaces          400;
        startFace       23600;
    }
    maxY
    {
        type            wall;
        inGroups        List<word> 1(wall);
        nFaces          400;
        startFace       24000;
    }
    minZ
    {
        type            wall;
        inGroups        List<word> 1(wall);
        nFaces          400;
        startFace       24400;
    }
    maxZ
    {
        type            wall;
        inGroups        List<word> 1(wall);
        nFaces          400;
        startFace       24800;
    }
)

// ************************************************************************* //
