/*--------------------------------*- C++ -*----------------------------------*\
  =========                 |
  \\      /  F ield         | OpenFOAM: The Open Source CFD Toolbox
   \\    /   O peration     | Website:  https://openfoam.org
    \\  /    A nd           | Version:  12
     \\/     M anipulation  |
\*---------------------------------------------------------------------------*/
FoamFile
{
    format      ascii;
    class       dictionary;
    object      blockMeshDict;
}
// * * * * * * * * * * * * * * * * * * * * * * * * * * * * * * * * * * * * * //

convertToMeters 0.001;

xmin 0;
xmax 1;
ymin 0.5;
ymax 1;
ymin2 0;
ymax2 0.5;
zmin 0;
zmax 1;

deltax 0.05;	//0.05 - 0.01
deltay 0.1;	//0.05 - 0.01
deltaz 1;	//0.05 - 0.01

lx 	#calc "$xmax - $xmin";	//abs($xmax - $xmin)"
ly 	#calc "$ymax - $ymin";
lz 	#calc "$zmax - $zmin";

xcells 	#calc "round(($lx)/($deltax))";
ycells 	#calc "round(($ly)/($deltay))";
zcells 	#calc "round(($lz)/($deltaz))";

vertices
(
    // BLOCK1
    ($xmin  $ymin  $zmin)	// 0
    ($xmax  $ymin  $zmin)	// 1
    ($xmax  $ymax  $zmin)	// 2
    ($xmin  $ymax  $zmin)	// 3
    ($xmin  $ymin  $zmax)	// 4
    ($xmax  $ymin  $zmax)	// 5
    ($xmax  $ymax  $zmax)	// 6
    ($xmin  $ymax  $zmax)	// 7

    // BLOCK2
    ($xmin  $ymin2  $zmin)	//8
    ($xmax  $ymin2  $zmin)	//9
    ($xmin  $ymin2  $zmax)	//10
    ($xmax  $ymin2  $zmax)	//11
);

blocks
(
    hex (0 1 2 3 4 5 6 7) ($xcells $ycells $zcells) simpleGrading (1 1 1)
    hex (8 9 1 0 10 11 5 4) ($xcells $ycells $zcells) simpleGrading (1 1 1)
);

boundary
(
    movingWall
    {
        type wall;
        faces
        (
            (3 7 6 2)
        );
    }
    
    fixedWalls
    {
        type wall;
        faces
        (
            (0 4 7 3)
            (2 6 5 1)
            (0 4 10 8)
            (1 5 11 9)
            (8 9 11 10)
        );
    }

    frontAndBack
    {
        type empty;
        faces
        (
            (4 5 6 7)
            (10 4 5 11)
            (0 3 2 1)
            (8 0 1 9)
        );
    }

);

mergePatchPairs
(
);

// ************************************************************************* //
